15
-170244.27638720776
C       2.4329  0.0     0.001   -11.377063537039927     0.008422566012263665    -2.7560099668814346
C       0.9259  0.0     0.001   27.069405346648164      0.042921825095515134    -2.166462828299069
C       0.2347  1.1972  -0.0006 -4.2018421288334435     6.260477233714844       0.5791956144513971
C       -1.1476 1.1972  -0.0006 -4.175156104929335      7.937873599502668       0.5603077520069825
C       -1.8388 0.0     0.0007  -11.024935070661387     -0.016365353180674478   0.2906762898680419
C       -1.1476 -1.1972 0.0014  -4.203075837461049      -7.901205704948292      0.1397377456313914
C       0.2347  -1.1971 -0.003  -4.182291682032828      -6.3918216792417075     1.263241383477497
H       2.7962  0.0014  1.0286  7.107594360377874       0.015002621012432913    5.989081031726996
H       2.7962  -0.8907 -0.5116 6.669503925188141       -3.7266095595388733     -1.2891305119905734
H       2.7962  0.8893  -0.5141 6.672957439604397       3.7086026179832854      -1.2840723365049618
H       0.7747  2.1325  -0.0016 5.460613349791097       8.503975802627053       -0.3132119493198922
H       -1.6876 2.1325  -0.0011 -4.910169707683241      8.350835558629925       -0.20282994725362732
H       -2.9188 0.0     0.0015  -9.436096858921625      0.0007655718637997564   -0.1578374401026949
H       -1.6876 -2.1325 0.0027  -4.904911990116035      -8.351213242851678      -0.18430330605046735
H       0.7747  -2.1325 -0.0025 5.435468496069177       -8.441661856680541      -0.46838153075958233
