9
-167510.9957431333
C       1.1705  0.2287  -0.3792 5.41593353586545        -26.65568358505657      20.368843275113008
C       0.0     -0.6414 0.0001  -0.0685709667626971     13.751367432163972      0.1653011578488783
C       -1.1706 0.2288  0.3792  -5.22714535812609       -26.343679109508116     -20.64887415616694
O       -2.2331 0.0875  -0.177  -26.357572718433346     5.687850447943083       -7.046335623139642
O       2.233   0.0876  0.1771  26.269901138421623      5.822771698401798       7.163358671147546
H       1.0604  0.9753  -1.1517 -9.536905597679667      16.53595150836277       -20.69484178475685
H       -0.2743 -1.2708 -0.8464 -6.872180631366324      -2.6286050634126052     -5.437483834331877
H       0.2743  -1.2705 0.8469  6.8805049934804146      -2.60939388020352       5.399644398266895
H       -1.0592 0.9787  1.1484  9.496035604600502       16.43942055130901       20.730387896018993
