20
-322973.56750404625
C       0.9698  -0.0687 0.00887 5.72266089104   -24.903317172056        -9.872536395379
C       2.48362 -0.08513        0.01528 -99.739377123611        50.996037367321 19.173902637161
O       2.88509 1.0     0.42119 66.860528549018 -1.380679278233 -0.854610863591
N       3.07607 -1.21916        -0.3793 -0.493945363825 28.780698809784 3.837108613716
C       4.43238 -1.18856        -0.35955        86.151486919975 -22.608653372687        -1.542021986193
C       5.15464 -1.90601        0.59688 42.365979338016 30.931150747429 -28.713451652065
C       6.55668 -1.80118        0.69213 -31.252488513494        15.643913745184 -26.744680516634
C       7.34416 -1.00307        -0.15866        -117.751043565695       -26.047450671081        10.39549159633
O       8.61018 -0.87323        -0.02662        76.520892993945 47.294787489862 -46.225850921825
C       6.59491 -0.36801        -1.16037        -20.738536142685        -14.150004239883        17.019141850104
C       5.19403 -0.45388        -1.26867        36.780656435263 -21.42472279437 38.117794747026
H       0.62206 0.88664 0.34249 -2.7226165892   15.656232645029 5.56865305488
H       0.60206 -0.83074        0.66382 -14.585791244722        -18.94402587629 12.64694445953
H       0.61534 -0.25039        -0.98423        -14.621125737378        -6.891664966118 -21.963363706459
H       2.56725 -2.01325        -0.66171        -21.881774286893        -24.850277427884        -8.068955747125
H       4.64998 -2.52699        1.24859 -25.774360872841        -31.235419881442        37.408768211703
H       7.03462 -2.34193        1.42982 25.065563960278 -30.741864489946        42.028067171196
H       9.05786 -1.32281        0.66289 6.718415921986  -26.252914853949        35.700228574932
H       7.10148 0.19634 -1.86032        26.534095556354 31.605844777048 -37.805647222298
H       4.71823 0.03925 -2.04033        -23.159221125529        28.52232944228  -40.104981905009
