21
-406757.5912640221
C       2.2393  -0.3791 0.263   -1.8342235724199345     1.0243422546435585      -2.2543675968818286
C       0.8424  1.9231  -0.4249 -5.591218505993106      3.309947916554474       -4.351241814202116
C       2.8709  0.8456  0.2722  10.418566672065914      1.8167662124620771      3.0534166566152257
C       2.1751  1.9935  -0.0703 4.368071217417887       2.724674552067337       -0.6607672787856174
C       -3.4838 0.4953  -0.0896 12.734432897968423      6.150024154554914       -22.55665960891591
C       0.891   -0.4647 -0.0939 17.07562357556979       -21.519462409575137     6.482720010705403
C       0.1908  0.6991  -0.4402 17.672138859460603      -2.5279522871197924     10.232899560602233
O       -0.9633 -1.8425 -0.4185 -21.761366282279926     -13.004609632046286     -3.5406889760393843
O       -1.6531 0.8889  1.3406  6.739812810181667       3.7175695263667086      24.810812505027446
O       0.8857  -2.8883 0.2267  56.17724192114808       12.013353747302904      12.981529441068616
C       0.209   -1.772  -0.1069 -36.624724852586375     -9.130682491313335      -7.689925680840504
C       -2.0185 0.6853  0.2071  -19.294461082691402     2.3522342221469987      39.64692577448302
O       -1.1189 0.6285  -0.7886 -22.633992461721434     9.279295816206334       -48.17346319307507
H       0.3962  -3.7219 0.2035  -20.280029988378665     4.8815280035211055      -6.036836215230837
H       2.7867  -1.2719 0.5268  1.4100065194139182      -7.83443201508828       1.5333644164256273
H       0.3069  2.8224  -0.6911 -7.049602938267278      5.1625303286628315      -1.6637621588358686
H       3.913   0.9108  0.5482  8.59088822864889        0.6221194865601325      2.4642140511070694
H       2.6781  2.9492  -0.0604 3.4005013876011967      8.230906774895088       -0.0026730380257048757
H       -3.736  -0.5623 -0.012  0.3959199762841433      -6.127246351237042      -1.133668533722564
H       -4.0763 1.0637  0.6273  2.0821138935464574      0.9967566887042344      4.038063882192225
H       -3.6988 0.8471  -1.0986 -5.995698274968782      -2.137664498268801      -7.179892203671586
