18
-241923.48033636645
C       -1.2248 -1.3976 -0.0002 1.771664427555  -3.11529186255  0.334271303425
C       -2.3916 -0.6968 -0.0001 -14.8718503185  -9.68218773205  -0.070173567464
C       -2.3916 0.6968  -0.0002 -14.87178113745 9.68237221485   -0.0796349984655
C       -1.2248 1.3976  0.0001  1.771332358515  3.1100341027500003      -0.00226427731822
C       0.0     0.7087  0.0004  -0.00064279803211       11.46438382145  -0.1035531934855
C       1.2248  1.3976  0.0001  -1.760046623225 3.11100263745   0.015956078794449997
C       2.3916  0.6968  0.0     14.8707434217   9.67614592035   -0.01640967587895
C       2.3916  -0.6968 -0.0002 14.872703551450002      -9.68297178395  0.0043423561464
C       1.2248  -1.3976 0.0     -1.771544513735 -3.10971125785  -0.0123519997533
C       0.0     -0.7087 0.0001  0.0012286323876500001   -11.4580422252  0.00980560672525
H       -1.2402 -2.4775 0.004   1.9414278061499999      -9.5828668046   -0.1919698038345
H       -3.3315 -1.2287 -0.0003 -8.94545567025  -4.12741062405  0.045046548897
H       -3.3315 1.2287  -0.0008 -8.9453403685   4.127341443     0.01061862242485
H       -1.2402 2.4775  -0.0003 1.941370155275  9.58833210755   0.0227314632883
H       1.2403  2.4775  -0.0004 -1.952909554415 9.58764029705   0.020630550101550002
H       3.3315  1.2287  -0.0002 8.94517894605   4.12745674475   -0.0090737403973
H       3.3315  -1.2287 -0.0009 8.94531730815   -4.1276181672000005     0.01741907351915
H       1.2402  -2.4775 -0.0005 -1.9413978276950001     -9.58849353     4.47234733935e-31
