24
-358809.26928227756
N       0.312712        -0.189125       -0.652257       14.980950548184 6.03615897476   20.153490175318
N       -0.425152       0.027819        0.348336        47.332233869147 35.727401880478 35.67224596081
C       -1.813819       0.089702        0.294973        52.838553704118 18.053244917416 -24.401843100646
C       -2.503205       1.262821        0.679907        -26.793935520784        -89.406133055246        -33.057545924911
C       -3.862655       1.277362        0.423995        27.684542915314 -7.331602809957 15.258045150411
C       -4.493193       0.110962        0.058743        -17.059588435384        -17.1474505369  -18.885399882339
C       -3.727232       -0.946623       -0.396182       -18.423169965626        -30.308250543835        -24.564458975676
C       -2.336991       -0.924111       -0.404978       -65.269248043389        -57.091721846846        -17.85679136185
C       1.782237        -0.095164       -0.283252       -21.817508479689        -27.000634983265        -25.795393133875
C       2.652016        -0.838469       -1.112532       -37.714499732559        14.419701180278 3.6560132381
C       3.985657        -0.868147       -0.925765       55.120780565688 22.575206636169 9.32044241364
C       4.479851        -0.117131       0.191691        42.207929965373 9.095634415357  -14.776629547951
C       3.654121        0.623069        1.077816        8.101144026126  -21.965135425279        -21.663116209494
C       2.288923        0.622481        0.793765        -4.123308533118 -22.757233683108        1.354592062957
H       -1.822729       1.928332        0.98749 41.439245449149 82.081986880844 31.676629913227
H       -4.376979       2.171997        0.387623        -30.151694363317        46.951752738116 12.961870571444
H       -5.57877        -0.000357       -0.054199       3.642831650253  10.343369859435 1.559221235481
H       -4.264805       -1.744746       -0.936485       4.407717859909  -0.557130081146 9.300527659268
H       -1.809076       -1.768467       -0.874204       5.411146495278  13.209868620656 6.990689407273
H       2.342896        -1.392247       -1.950588       -29.587205803596        -13.797651928964        -26.540024030414
H       4.611286        -1.31671        -1.786974       -11.709672257438        12.126084825202 42.278454239123
H       5.599695        0.011134        0.251777        -23.15529942969 -6.903857119589 6.57940479815
H       4.069632        1.117398        1.968297        -2.398113181118 -1.302897500834 -8.425443990968
H       1.531712        0.890704        1.486334        -14.963833302832        24.94928858626  19.205019332925
